Version 4
SHEET 1 984 680
WIRE -112 -224 -144 -224
WIRE 304 -208 240 -208
WIRE 448 -208 384 -208
WIRE -144 -192 -144 -224
WIRE -144 -96 -144 -112
WIRE 128 -96 64 -96
WIRE 240 -96 240 -208
WIRE 240 -96 208 -96
WIRE 272 -96 240 -96
WIRE 448 -80 448 -208
WIRE 448 -80 384 -80
WIRE 480 -80 448 -80
WIRE 592 -80 560 -80
WIRE 624 -80 592 -80
WIRE 784 -80 704 -80
WIRE -112 -64 -144 -64
WIRE 272 -64 144 -64
WIRE 64 -48 64 -96
WIRE -144 -32 -144 -64
WIRE 144 -32 144 -64
WIRE 240 32 240 -96
WIRE 432 32 240 32
WIRE 592 32 592 -80
WIRE 592 32 512 32
WIRE 640 32 592 32
WIRE 784 48 784 -80
WIRE 784 48 752 48
WIRE 912 48 784 48
WIRE 640 64 592 64
WIRE -144 80 -144 48
WIRE 144 80 144 48
WIRE 592 112 592 64
WIRE 592 224 592 192
FLAG 144 80 0
FLAG -144 -96 0
FLAG -144 80 0
FLAG -112 -224 V+
FLAG -112 -64 V-
FLAG 288 -16 V-
FLAG 288 -144 V+
FLAG 64 -48 0
FLAG 592 224 0
FLAG 656 -16 V+
FLAG 656 112 V-
FLAG 912 48 Vout
FLAG 320 -32 0
FLAG 688 96 0
FLAG 320 -128 V+
FLAG 688 0 V+
DATAFLAG 720 -80 ""
DATAFLAG 848 48 ""
DATAFLAG 464 -80 ""
DATAFLAG 400 -208 ""
SYMBOL voltage 144 -48 R0
WINDOW 123 24 124 Left 2
WINDOW 39 0 0 Left 0
SYMATTR Value2 AC 1
SYMATTR InstName VB
SYMATTR Value SINE(0 6.29m 2k)
SYMBOL OpAmps\\LT6018 320 -80 R0
SYMATTR InstName U1
SYMBOL voltage -144 -208 R0
WINDOW 123 0 0 Left 0
WINDOW 39 0 0 Left 0
SYMATTR InstName V_Positive
SYMATTR Value 15
SYMBOL voltage -144 -48 R0
WINDOW 123 0 0 Left 0
WINDOW 39 0 0 Left 0
SYMATTR InstName V_Negative
SYMATTR Value -15
SYMBOL res 224 -112 R90
WINDOW 0 0 56 VBottom 2
WINDOW 3 32 56 VTop 2
SYMATTR InstName R1
SYMATTR Value 1k
SYMBOL res 400 -224 R90
WINDOW 0 0 56 VBottom 2
WINDOW 3 32 56 VTop 2
SYMATTR InstName R2
SYMATTR Value 9k
SYMBOL res 576 -96 R90
WINDOW 0 0 56 VBottom 2
WINDOW 3 32 56 VTop 2
SYMATTR InstName R3
SYMATTR Value 9k
SYMBOL res 720 -96 R90
WINDOW 0 0 56 VBottom 2
WINDOW 3 32 56 VTop 2
SYMATTR InstName R4
SYMATTR Value 1k
SYMBOL OpAmps\\LT6018 688 48 R0
SYMATTR InstName U2
SYMBOL res 528 16 R90
WINDOW 0 0 56 VBottom 2
WINDOW 3 32 56 VTop 2
SYMATTR InstName RG
SYMATTR Value 225
SYMBOL voltage 592 96 R0
WINDOW 123 0 0 Left 0
WINDOW 39 0 0 Left 0
SYMATTR InstName VA
SYMATTR Value SINE(0 6.29m 2K)
TEXT -176 248 Left 2 !.tran 10m
TEXT -152 216 Left 2 !.op
TEXT -184 288 Left 2 !;ac dec 100 1 10Meg
TEXT -184 320 Left 2 !;FOUR 2K 10 V(vOUT)
