Version 4
SHEET 1 2964 680
WIRE -272 -224 -320 -224
WIRE -112 -224 -144 -224
WIRE 304 -208 240 -208
WIRE 448 -208 384 -208
WIRE 1216 -208 1152 -208
WIRE 1360 -208 1296 -208
WIRE 2240 -208 2176 -208
WIRE 2384 -208 2320 -208
WIRE -320 -192 -320 -224
WIRE -144 -192 -144 -224
WIRE -144 -96 -144 -112
WIRE 128 -96 64 -96
WIRE 240 -96 240 -208
WIRE 240 -96 208 -96
WIRE 272 -96 240 -96
WIRE 1040 -96 976 -96
WIRE 1152 -96 1152 -208
WIRE 1152 -96 1120 -96
WIRE 1184 -96 1152 -96
WIRE 2064 -96 2000 -96
WIRE 2176 -96 2176 -208
WIRE 2176 -96 2144 -96
WIRE 2208 -96 2176 -96
WIRE 448 -80 448 -208
WIRE 448 -80 384 -80
WIRE 480 -80 448 -80
WIRE 592 -80 560 -80
WIRE 624 -80 592 -80
WIRE 784 -80 704 -80
WIRE 1360 -80 1360 -208
WIRE 1360 -80 1296 -80
WIRE 1392 -80 1360 -80
WIRE 1504 -80 1472 -80
WIRE 1536 -80 1504 -80
WIRE 1696 -80 1616 -80
WIRE 2384 -80 2384 -208
WIRE 2384 -80 2320 -80
WIRE 2416 -80 2384 -80
WIRE 2528 -80 2496 -80
WIRE 2560 -80 2528 -80
WIRE 2720 -80 2640 -80
WIRE -112 -64 -144 -64
WIRE 272 -64 144 -64
WIRE 1184 -64 1056 -64
WIRE 2096 -64 2080 -64
WIRE 2208 -64 2096 -64
WIRE 64 -48 64 -96
WIRE 976 -48 976 -96
WIRE 2000 -48 2000 -96
WIRE -144 -32 -144 -64
WIRE 144 0 144 -64
WIRE 240 32 240 -96
WIRE 432 32 240 32
WIRE 592 32 592 -80
WIRE 592 32 512 32
WIRE 640 32 592 32
WIRE 1152 32 1152 -96
WIRE 1344 32 1152 32
WIRE 1504 32 1504 -80
WIRE 1504 32 1424 32
WIRE 1552 32 1504 32
WIRE 2096 32 2096 -64
WIRE 2176 32 2176 -96
WIRE 2368 32 2176 32
WIRE 2528 32 2528 -80
WIRE 2528 32 2448 32
WIRE 2576 32 2528 32
WIRE 784 48 784 -80
WIRE 784 48 752 48
WIRE 912 48 784 48
WIRE 1696 48 1696 -80
WIRE 1696 48 1664 48
WIRE 1728 48 1696 48
WIRE 1760 48 1728 48
WIRE 2720 48 2720 -80
WIRE 2720 48 2688 48
WIRE 2752 48 2720 48
WIRE 2784 48 2752 48
WIRE 640 64 592 64
WIRE 1552 64 1504 64
WIRE 2576 64 2528 64
WIRE -144 80 -144 48
WIRE 2528 112 2528 64
WIRE 592 144 592 64
WIRE 1056 144 1056 -64
WIRE 1216 144 1056 144
WIRE 1504 144 1504 64
WIRE 1504 144 1216 144
WIRE 2096 144 2096 112
WIRE 2528 224 2528 192
FLAG 144 0 0
FLAG -144 -96 0
FLAG -144 80 0
FLAG -112 -224 V+
FLAG -112 -64 V-
FLAG 288 -16 V-
FLAG 64 -48 0
FLAG 592 144 0
FLAG 656 112 V-
FLAG 912 48 Vout-PS
FLAG 320 -32 0
FLAG 688 96 0
FLAG 320 -128 V+
FLAG 688 0 V+
FLAG 1200 -16 V-
FLAG 1200 -144 V+
FLAG 976 -48 0
FLAG 1568 -16 V+
FLAG 1568 112 V-
FLAG 1232 -32 0
FLAG 1600 96 0
FLAG 1232 -128 V+
FLAG 1600 0 V+
FLAG 1216 224 0
FLAG 2224 -16 V-
FLAG 2224 -144 V+
FLAG 2000 -48 0
FLAG 2592 -16 V+
FLAG 2592 112 V-
FLAG 2256 -32 0
FLAG 2624 96 0
FLAG 2256 -128 V+
FLAG 2624 0 V+
FLAG 2096 144 0
FLAG 2528 224 0
FLAG 1728 48 vout-CM
FLAG 2752 48 vout-DF
FLAG -320 -112 0
FLAG -272 -224 dV+
FLAG 288 -144 dV+
FLAG 656 -16 dV+
DATAFLAG 848 48 ""
DATAFLAG 736 -80 "I(R4)"
DATAFLAG 1760 48 ""
DATAFLAG 1648 -80 "I(R4)"
DATAFLAG 2784 48 ""
DATAFLAG 2672 -80 "I(R4)"
SYMBOL OpAmps\\LT6018 320 -80 R0
SYMATTR InstName U1
SYMBOL voltage -144 -208 R0
WINDOW 123 24 44 Left 2
WINDOW 39 0 0 Left 0
SYMATTR InstName V_Positive
SYMATTR Value 15
SYMBOL voltage -144 -48 R0
WINDOW 123 0 0 Left 0
WINDOW 39 0 0 Left 0
SYMATTR InstName V_Negative
SYMATTR Value -15
SYMBOL res 224 -112 R90
WINDOW 0 0 56 VBottom 2
WINDOW 3 32 56 VTop 2
SYMATTR InstName R1
SYMATTR Value 1k
SYMBOL res 400 -224 R90
WINDOW 0 0 56 VBottom 2
WINDOW 3 32 56 VTop 2
SYMATTR InstName R2
SYMATTR Value 9k
SYMBOL res 576 -96 R90
WINDOW 0 0 56 VBottom 2
WINDOW 3 32 56 VTop 2
SYMATTR InstName R3
SYMATTR Value 9k
SYMBOL res 720 -96 R90
WINDOW 0 0 56 VBottom 2
WINDOW 3 32 56 VTop 2
SYMATTR InstName R4
SYMATTR Value 1k
SYMBOL OpAmps\\LT6018 688 48 R0
SYMATTR InstName U2
SYMBOL res 528 16 R90
WINDOW 0 0 56 VBottom 2
WINDOW 3 32 56 VTop 2
SYMATTR InstName RG
SYMATTR Value 225
SYMBOL OpAmps\\LT6018 1232 -80 R0
SYMATTR InstName U3
SYMBOL res 1136 -112 R90
WINDOW 0 0 56 VBottom 2
WINDOW 3 32 56 VTop 2
SYMATTR InstName R5
SYMATTR Value 1k
SYMBOL res 1488 -96 R90
WINDOW 0 0 56 VBottom 2
WINDOW 3 32 56 VTop 2
SYMATTR InstName R6
SYMATTR Value 9k
SYMBOL res 1632 -96 R90
WINDOW 0 0 56 VBottom 2
WINDOW 3 32 56 VTop 2
SYMATTR InstName R7
SYMATTR Value 1k
SYMBOL OpAmps\\LT6018 1600 48 R0
SYMATTR InstName U4
SYMBOL res 1440 16 R90
WINDOW 0 0 56 VBottom 2
WINDOW 3 32 56 VTop 2
SYMATTR InstName RG1
SYMATTR Value 225
SYMBOL res 1312 -224 R90
WINDOW 0 0 56 VBottom 2
WINDOW 3 32 56 VTop 2
SYMATTR InstName R8
SYMATTR Value 9k
SYMBOL voltage 1216 128 R0
WINDOW 123 24 124 Left 2
WINDOW 39 0 0 Left 0
SYMATTR Value2 AC 1
SYMATTR InstName V1
SYMATTR Value ""
SYMBOL OpAmps\\LT6018 2256 -80 R0
SYMATTR InstName U5
SYMBOL res 2160 -112 R90
WINDOW 0 0 56 VBottom 2
WINDOW 3 32 56 VTop 2
SYMATTR InstName R9
SYMATTR Value 1k
SYMBOL res 2512 -96 R90
WINDOW 0 0 56 VBottom 2
WINDOW 3 32 56 VTop 2
SYMATTR InstName R10
SYMATTR Value 9k
SYMBOL res 2656 -96 R90
WINDOW 0 0 56 VBottom 2
WINDOW 3 32 56 VTop 2
SYMATTR InstName R11
SYMATTR Value 1k
SYMBOL OpAmps\\LT6018 2624 48 R0
SYMATTR InstName U6
SYMBOL res 2464 16 R90
WINDOW 0 0 56 VBottom 2
WINDOW 3 32 56 VTop 2
SYMATTR InstName RG2
SYMATTR Value 225
SYMBOL res 2336 -224 R90
WINDOW 0 0 56 VBottom 2
WINDOW 3 32 56 VTop 2
SYMATTR InstName R12
SYMATTR Value 9k
SYMBOL voltage 2096 16 R0
WINDOW 123 24 124 Left 2
WINDOW 39 0 0 Left 0
SYMATTR Value2 AC 0.5
SYMATTR InstName VB1
SYMATTR Value SINE(0 6.29m 2k)
SYMBOL voltage 2528 96 R0
WINDOW 123 24 124 Left 2
WINDOW 39 0 0 Left 0
SYMATTR Value2 AC -0.5
SYMATTR InstName VA1
SYMATTR Value SINE(0 6.29m 2K)
SYMBOL voltage -320 -208 R0
WINDOW 123 24 44 Left 2
WINDOW 39 0 0 Left 0
SYMATTR Value2 AC 1
SYMATTR InstName V_Positive_dPS
SYMATTR Value 15
TEXT -176 248 Left 2 !;tran 10m
TEXT -176 208 Left 2 !.ac dec 100 1 10Meg
TEXT -160 160 Left 2 !.op
TEXT 1256 360 Left 2 !.meas AC cmmr FIND (V(vout-DF)/V(vout-CM)) AT 1
TEXT 1256 392 Left 2 !.meas AC psrr FIND (V(vout-DF)/V(vout-PS)) AT 1
TEXT 1256 328 Left 2 !.meas AC adif FIND (V(vout-DF)) AT 1
