Version 4
SHEET 1 880 680
WIRE 32 -32 -48 -32
WIRE 176 -32 112 -32
WIRE 256 -32 176 -32
WIRE 416 -32 336 -32
WIRE 528 -32 416 -32
WIRE 624 -32 528 -32
WIRE -48 16 -48 -32
WIRE 416 48 416 -32
WIRE 528 48 528 -32
WIRE -48 128 -48 96
WIRE 240 144 240 112
WIRE 528 160 528 128
WIRE 176 192 176 -32
WIRE 224 192 176 192
WIRE 416 208 416 112
WIRE 416 208 336 208
WIRE 496 208 416 208
WIRE 224 224 176 224
WIRE 496 240 496 208
WIRE 240 304 240 272
WIRE 496 336 496 304
WIRE 176 352 176 224
FLAG 496 336 0
FLAG 528 160 0
FLAG 624 -32 Vout
FLAG 176 352 0
FLAG -48 128 0
FLAG 240 112 +VDD
FLAG 240 304 -VSS
FLAG -320 96 0
FLAG -320 256 0
FLAG -320 16 +VDD
FLAG -320 176 -VSS
FLAG 272 256 0
FLAG 272 160 VDD
FLAG -48 -32 in
SYMBOL OpAmps\\LT6018 272 208 R0
SYMATTR InstName OA
SYMBOL diode 512 304 R180
WINDOW 0 24 64 Left 2
WINDOW 3 24 0 Left 2
SYMATTR InstName D2
SYMATTR Value 1N4148
SYMBOL diode 432 112 R180
WINDOW 0 24 64 Left 2
WINDOW 3 24 0 Left 2
SYMATTR InstName D1
SYMATTR Value 1N4148
SYMBOL res 512 32 R0
SYMATTR InstName RL
SYMATTR Value 500k
SYMBOL res 352 -48 R90
WINDOW 0 0 56 VBottom 2
WINDOW 3 32 56 VTop 2
SYMATTR InstName R2
SYMATTR Value 100
SYMBOL res 128 -48 R90
WINDOW 0 0 56 VBottom 2
WINDOW 3 32 56 VTop 2
SYMATTR InstName R1
SYMATTR Value 100
SYMBOL voltage -48 0 R0
WINDOW 123 24 124 Left 2
WINDOW 39 0 0 Left 0
SYMATTR Value2 AC 1
SYMATTR InstName Vin
SYMATTR Value SINE(0 6.29m 2k)
SYMBOL voltage -320 0 R0
WINDOW 123 0 0 Left 0
WINDOW 39 0 0 Left 0
SYMATTR InstName +VDD
SYMATTR Value 15
SYMBOL voltage -320 160 R0
WINDOW 123 0 0 Left 0
WINDOW 39 0 0 Left 0
SYMATTR InstName -VSS
SYMATTR Value -15
TEXT -352 408 Left 2 !.tran 0 10m 0 100n
TEXT -352 376 Left 2 !;ac dec 100 1 10Meg
TEXT -328 328 Left 2 !.op
TEXT -360 440 Left 2 !;FOUR 2k 10 V(vOUT)
