Version 4
SHEET 1 880 680
WIRE -64 -112 -96 -112
WIRE 48 -112 0 -112
WIRE 272 -112 48 -112
WIRE 48 -48 48 -112
WIRE -592 -32 -592 -48
WIRE -208 144 -240 144
WIRE -96 144 -96 -112
WIRE -96 144 -128 144
WIRE -64 144 -96 144
WIRE 48 144 48 32
WIRE 48 144 0 144
WIRE 96 144 48 144
WIRE 272 160 272 -112
WIRE 272 160 208 160
WIRE 352 160 272 160
WIRE -592 176 -592 160
WIRE 96 176 32 176
WIRE -240 192 -240 144
WIRE 32 256 32 176
WIRE -240 320 -240 272
FLAG 32 256 0
FLAG -240 320 0
FLAG 352 160 Vout
FLAG -592 48 0
FLAG -592 256 0
FLAG -592 -48 V-
FLAG -592 160 V+
FLAG 112 96 V+
FLAG 112 224 V-
FLAG 144 208 0
FLAG 144 112 V+
SYMBOL OpAmps\\LT6018 144 160 R0
SYMATTR InstName AO
SYMBOL cap 0 128 R90
WINDOW 0 0 32 VBottom 2
WINDOW 3 32 32 VTop 2
SYMATTR InstName C2
SYMATTR Value 1n
SYMBOL res -112 128 R90
WINDOW 0 0 56 VBottom 2
WINDOW 3 32 56 VTop 2
SYMATTR InstName R1
SYMATTR Value 20k
SYMBOL voltage -240 176 R0
WINDOW 123 24 124 Left 2
WINDOW 39 0 0 Left 0
SYMATTR Value2 AC 1
SYMATTR InstName Vi
SYMATTR Value SINE(0 6.29m 2k)
SYMBOL res 32 -64 R0
SYMATTR InstName R2
SYMATTR Value 159k
SYMBOL cap 0 -128 R90
WINDOW 0 0 32 VBottom 2
WINDOW 3 32 32 VTop 2
SYMATTR InstName C1
SYMATTR Value 1n
SYMBOL voltage -592 -48 R0
WINDOW 123 0 0 Left 0
WINDOW 39 0 0 Left 0
SYMATTR InstName V-
SYMATTR Value -15
SYMBOL voltage -592 160 R0
WINDOW 123 0 0 Left 0
WINDOW 39 0 0 Left 0
SYMATTR InstName V+
SYMATTR Value 15
TEXT -624 344 Left 2 !;tran 10m
TEXT -624 400 Left 2 !.op
TEXT -624 448 Left 2 !.ac dec 100 1 10Meg
