Version 4
SHEET 1 1136 680
WIRE 0 -80 -32 -80
WIRE 416 -64 352 -64
WIRE 560 -64 496 -64
WIRE -32 -48 -32 -80
WIRE -32 48 -32 32
WIRE 240 48 176 48
WIRE 352 48 352 -64
WIRE 352 48 320 48
WIRE 384 48 352 48
WIRE 560 64 560 -64
WIRE 560 64 496 64
WIRE 592 64 560 64
WIRE 704 64 672 64
WIRE 736 64 704 64
WIRE 896 64 816 64
WIRE 0 80 -32 80
WIRE 176 96 176 48
WIRE -32 112 -32 80
WIRE 352 176 352 48
WIRE 544 176 352 176
WIRE 704 176 704 64
WIRE 704 176 624 176
WIRE 752 176 704 176
WIRE 896 192 896 64
WIRE 896 192 864 192
WIRE 1024 192 896 192
WIRE -448 208 -448 176
WIRE 752 208 704 208
WIRE -32 224 -32 192
WIRE -480 448 -480 416
FLAG -448 208 0
FLAG -32 48 0
FLAG -32 224 0
FLAG 0 -80 V+
FLAG 0 80 V-
FLAG 400 128 V-
FLAG 400 0 V+
FLAG 176 96 0
FLAG -480 448 0
FLAG 768 128 V+
FLAG 432 112 0
FLAG 800 240 0
FLAG 432 16 V+
FLAG 800 144 V+
FLAG 768 256 V-
FLAG -448 96 VB
IOPIN -448 96 In
FLAG 384 80 VB
IOPIN 384 80 In
FLAG -480 336 VA
IOPIN -480 336 In
FLAG 704 208 VA
IOPIN 704 208 In
FLAG 1024 192 Vout
IOPIN 1024 192 Out
SYMBOL voltage -448 80 R0
WINDOW 123 24 124 Left 2
WINDOW 39 0 0 Left 0
SYMATTR Value2 AC 1
SYMATTR InstName VB1
SYMATTR Value SINE(0 6.29m 2k)
SYMBOL OpAmps\\LT6018 432 64 R0
SYMATTR InstName U1
SYMBOL voltage -32 -64 R0
WINDOW 123 0 0 Left 0
WINDOW 39 0 0 Left 0
SYMATTR InstName V_Positive1
SYMATTR Value 15
SYMBOL voltage -32 96 R0
WINDOW 123 0 0 Left 0
WINDOW 39 0 0 Left 0
SYMATTR InstName V_Negative1
SYMATTR Value -15
SYMBOL res 336 32 R90
WINDOW 0 0 56 VBottom 2
WINDOW 3 32 56 VTop 2
SYMATTR InstName R1
SYMATTR Value 1k
SYMBOL res 512 -80 R90
WINDOW 0 0 56 VBottom 2
WINDOW 3 32 56 VTop 2
SYMATTR InstName R2
SYMATTR Value 9k
SYMBOL res 688 48 R90
WINDOW 0 0 56 VBottom 2
WINDOW 3 32 56 VTop 2
SYMATTR InstName R3
SYMATTR Value 9k
SYMBOL res 832 48 R90
WINDOW 0 0 56 VBottom 2
WINDOW 3 32 56 VTop 2
SYMATTR InstName R4
SYMATTR Value 1k
SYMBOL OpAmps\\LT6018 800 192 R0
SYMATTR InstName U2
SYMBOL res 640 160 R90
WINDOW 0 0 56 VBottom 2
WINDOW 3 32 56 VTop 2
SYMATTR InstName RG1
SYMATTR Value 225
SYMBOL voltage -480 320 R0
WINDOW 123 0 0 Left 0
WINDOW 39 0 0 Left 0
SYMATTR InstName VA1
SYMATTR Value SINE(0 6.29m 2K)
TEXT -64 392 Left 2 !.tran 10m
TEXT -40 360 Left 2 !;op
TEXT -72 432 Left 2 !;ac dec 100 1 10Meg
TEXT -72 464 Left 2 !.FOUR 2K 10 V(vOUT)
