Version 4
SHEET 1 944 692
WIRE 240 -16 160 -16
WIRE 384 -16 320 -16
WIRE 464 -16 384 -16
WIRE 624 -16 544 -16
WIRE 736 -16 624 -16
WIRE 832 -16 736 -16
WIRE 160 32 160 -16
WIRE 624 64 624 -16
WIRE 736 64 736 -16
WIRE 448 160 448 128
WIRE 736 176 736 144
WIRE 384 208 384 -16
WIRE 432 208 384 208
WIRE 624 224 624 128
WIRE 624 224 544 224
WIRE 704 224 624 224
WIRE 432 240 384 240
WIRE 704 256 704 224
WIRE -432 304 -432 256
WIRE 448 320 448 288
WIRE 704 352 704 320
WIRE 384 368 384 240
WIRE -432 416 -432 384
FLAG 704 352 0
FLAG 736 176 0
FLAG 384 368 0
FLAG -432 416 0
FLAG 448 128 +VDD
FLAG 448 320 -VSS
FLAG -112 112 0
FLAG -112 272 0
FLAG -112 32 +VDD
FLAG -112 192 -VSS
FLAG 480 272 0
FLAG 480 176 VDD
FLAG 160 32 Vin
IOPIN 160 32 In
FLAG -432 256 Vin
IOPIN -432 256 In
FLAG 832 -16 Vout
IOPIN 832 -16 Out
SYMBOL OpAmps\\LT6018 480 224 R0
SYMATTR InstName OA1
SYMBOL diode 720 320 R180
WINDOW 0 24 64 Left 2
WINDOW 3 24 0 Left 2
SYMATTR InstName D1
SYMATTR Value 1N4148
SYMBOL diode 640 128 R180
WINDOW 0 24 64 Left 2
WINDOW 3 24 0 Left 2
SYMATTR InstName D2
SYMATTR Value 1N4148
SYMBOL res 720 48 R0
SYMATTR InstName RL1
SYMATTR Value 500k
SYMBOL res 560 -32 R90
WINDOW 0 0 56 VBottom 2
WINDOW 3 32 56 VTop 2
SYMATTR InstName R1
SYMATTR Value 100
SYMBOL res 336 -32 R90
WINDOW 0 0 56 VBottom 2
WINDOW 3 32 56 VTop 2
SYMATTR InstName R2
SYMATTR Value 100
SYMBOL voltage -432 288 R0
WINDOW 123 24 124 Left 2
WINDOW 39 0 0 Left 0
SYMATTR Value2 AC 1
SYMATTR InstName Vin1
SYMATTR Value SINE(0 6.29m 2k)
SYMBOL voltage -112 16 R0
WINDOW 123 0 0 Left 0
WINDOW 39 0 0 Left 0
SYMATTR InstName V1
SYMATTR Value 15
SYMBOL voltage -112 176 R0
WINDOW 123 0 0 Left 0
WINDOW 39 0 0 Left 0
SYMATTR InstName V2
SYMATTR Value -15
TEXT -144 424 Left 2 !.tran 0 10m 0 100n
TEXT -144 392 Left 2 !;ac dec 100 1 10Meg
TEXT -120 344 Left 2 !.op
TEXT -152 456 Left 2 !.FOUR 2k 10 V(vOUT)
