Version 4
SHEET 1 1024 680
WIRE 496 -80 464 -80
WIRE 608 -80 560 -80
WIRE 832 -80 608 -80
WIRE 608 -16 608 -80
WIRE -32 0 -32 -16
WIRE 352 176 304 176
WIRE 464 176 464 -80
WIRE 464 176 432 176
WIRE 496 176 464 176
WIRE 608 176 608 64
WIRE 608 176 560 176
WIRE 656 176 608 176
WIRE 832 192 832 -80
WIRE 832 192 768 192
WIRE 912 192 832 192
WIRE -32 208 -32 192
WIRE 656 208 592 208
WIRE 592 288 592 208
WIRE 304 416 304 336
WIRE 304 544 304 496
FLAG 592 288 0
FLAG 304 544 0
FLAG -32 80 0
FLAG -32 288 0
FLAG -32 -16 V-
FLAG -32 192 V+
FLAG 672 128 V+
FLAG 672 256 V-
FLAG 704 240 0
FLAG 704 144 V+
FLAG 304 176 Vin
IOPIN 304 176 In
FLAG 304 336 Vin
IOPIN 304 336 In
FLAG 912 192 Vout
IOPIN 912 192 Out
SYMBOL OpAmps\\LT6018 704 192 R0
SYMATTR InstName AO1
SYMBOL cap 560 160 R90
WINDOW 0 0 32 VBottom 2
WINDOW 3 32 32 VTop 2
SYMATTR InstName C1
SYMATTR Value 1n
SYMBOL res 448 160 R90
WINDOW 0 0 56 VBottom 2
WINDOW 3 32 56 VTop 2
SYMATTR InstName R1
SYMATTR Value 20k
SYMBOL voltage 304 400 R0
WINDOW 123 24 124 Left 2
WINDOW 39 0 0 Left 0
SYMATTR Value2 AC 1
SYMATTR InstName Vi1
SYMATTR Value SINE(0 6.29m 2k)
SYMBOL res 592 -32 R0
SYMATTR InstName R2
SYMATTR Value 159k
SYMBOL cap 560 -96 R90
WINDOW 0 0 32 VBottom 2
WINDOW 3 32 32 VTop 2
SYMATTR InstName C2
SYMATTR Value 1n
SYMBOL voltage -32 -16 R0
WINDOW 123 0 0 Left 0
WINDOW 39 0 0 Left 0
SYMATTR InstName V1
SYMATTR Value -15
SYMBOL voltage -32 192 R0
WINDOW 123 0 0 Left 0
WINDOW 39 0 0 Left 0
SYMATTR InstName V2
SYMATTR Value 15
TEXT -64 376 Left 2 !;tran 10m
TEXT -64 432 Left 2 !;op
TEXT -64 480 Left 2 !.ac dec 100 1 10Meg
