Version 4
SHEET 1 2160 1028
WIRE 1280 -112 1280 -160
WIRE 1424 -112 1424 -160
WIRE 1584 -112 1584 -160
WIRE 1760 -112 1760 -160
WIRE 1936 -112 1936 -160
WIRE 960 -96 960 -128
WIRE 1088 -96 1088 -128
WIRE 960 0 960 -16
WIRE 1088 0 1088 -16
WIRE 1280 16 1280 -32
WIRE 1424 16 1424 -32
WIRE 1584 16 1584 -32
WIRE 1760 16 1760 -32
WIRE 1936 16 1936 -32
WIRE -432 160 -496 160
WIRE -208 160 -352 160
WIRE 32 160 -208 160
WIRE 240 160 112 160
WIRE 448 160 240 160
WIRE 640 160 528 160
WIRE 880 160 640 160
WIRE 1104 160 960 160
WIRE 1328 160 1104 160
WIRE 1552 160 1408 160
WIRE 1840 160 1552 160
WIRE 2000 160 1920 160
WIRE 1104 224 1104 160
WIRE -496 240 -496 160
WIRE -208 240 -208 160
WIRE 240 240 240 160
WIRE 640 240 640 160
WIRE 1552 240 1552 160
WIRE 1824 464 1824 448
WIRE 1856 480 1856 448
WIRE -208 512 -208 432
WIRE 240 512 240 432
WIRE 240 512 -208 512
WIRE 640 512 640 432
WIRE 640 512 240 512
WIRE 1104 512 1104 416
WIRE 1104 512 640 512
WIRE 1552 512 1552 432
WIRE 1552 512 1104 512
WIRE 1808 512 1552 512
WIRE 2000 528 2000 160
WIRE 2000 528 1920 528
WIRE 2048 528 2000 528
WIRE 1808 544 1712 544
WIRE 1824 608 1824 592
WIRE 1856 608 1856 576
WIRE 1712 624 1712 544
WIRE 448 784 448 688
WIRE 448 1008 448 864
FLAG 960 0 0
FLAG 1088 0 0
FLAG 960 -128 VCC
FLAG 1088 -128 -VCC
FLAG 1856 608 0
FLAG 1824 448 VCC
FLAG 1856 448 VCC
FLAG 1824 608 -VCC
FLAG -496 240 0
FLAG 1280 -160 S1
FLAG 1424 -160 S2
FLAG 1584 -160 S3
FLAG 1760 -160 S4
FLAG 1936 -160 S5
FLAG 1280 16 0
FLAG 1424 16 0
FLAG 1584 16 0
FLAG 1760 16 0
FLAG 1936 16 0
FLAG -288 336 VCC
FLAG 160 336 VCC
FLAG 560 336 VCC
FLAG 1024 320 VCC
FLAG 1472 336 VCC
FLAG -32 400 -VCC
FLAG 416 400 -VCC
FLAG 816 400 -VCC
FLAG 1280 384 -VCC
FLAG 1728 400 -VCC
FLAG -32 272 0
FLAG 416 272 0
FLAG 816 272 0
FLAG 1280 256 0
FLAG 1728 272 0
FLAG 1616 432 S1
FLAG 1168 416 S2
FLAG 704 432 S3
FLAG 304 432 S4
FLAG -144 432 S5
FLAG 448 1008 0
FLAG 448 688 Vin
IOPIN 448 688 In
FLAG 1712 624 Vin
IOPIN 1712 624 In
FLAG 2048 528 Vout
IOPIN 2048 528 Out
DATAFLAG 2000 528 ""
DATAFLAG 1552 160 ""
DATAFLAG 1104 160 ""
DATAFLAG 640 160 ""
DATAFLAG 240 160 ""
DATAFLAG -208 160 ""
SYMBOL OpAmps\\LT6018 1856 528 R0
SYMATTR InstName U1
SYMBOL voltage 960 -112 R0
SYMATTR InstName V1
SYMATTR Value 15
SYMBOL voltage 1088 -112 R0
SYMATTR InstName V2
SYMATTR Value -15
SYMBOL res 1424 144 R90
WINDOW 0 0 56 VBottom 2
WINDOW 3 32 56 VTop 2
SYMATTR InstName R1
SYMATTR Value 11.93k
SYMBOL res 976 144 R90
WINDOW 0 0 56 VBottom 2
WINDOW 3 32 56 VTop 2
SYMATTR InstName R2
SYMATTR Value 8.34k
SYMBOL res 544 144 R90
WINDOW 0 0 56 VBottom 2
WINDOW 3 32 56 VTop 2
SYMATTR InstName R3
SYMATTR Value 5.81k
SYMBOL res 128 144 R90
WINDOW 0 0 56 VBottom 2
WINDOW 3 32 56 VTop 2
SYMATTR InstName R4
SYMATTR Value 4.12k
SYMBOL res -336 144 R90
WINDOW 0 0 56 VBottom 2
WINDOW 3 32 56 VTop 2
SYMATTR InstName R5
SYMATTR Value 10k
SYMBOL res 1936 144 R90
WINDOW 0 0 56 VBottom 2
WINDOW 3 32 56 VTop 2
SYMATTR InstName R6
SYMATTR Value 39.75k
SYMBOL voltage 1280 -128 R0
WINDOW 123 0 0 Left 0
WINDOW 39 0 0 Left 0
SYMATTR InstName V3
SYMATTR Value 6
SYMBOL voltage 1424 -128 R0
WINDOW 123 0 0 Left 0
WINDOW 39 0 0 Left 0
SYMATTR InstName V4
SYMATTR Value 0
SYMBOL voltage 1584 -128 R0
WINDOW 123 0 0 Left 0
WINDOW 39 0 0 Left 0
SYMATTR InstName V5
SYMATTR Value 0
SYMBOL voltage 1760 -128 R0
WINDOW 123 0 0 Left 0
WINDOW 39 0 0 Left 0
SYMATTR InstName V6
SYMATTR Value 0
SYMBOL voltage 1936 -128 R0
WINDOW 123 0 0 Left 0
WINDOW 39 0 0 Left 0
SYMATTR InstName V7
SYMATTR Value 0
SYMBOL Switches\\ADG1212 -160 336 R270
SYMATTR InstName U2
SYMBOL Switches\\ADG1212 288 336 R270
SYMATTR InstName U3
SYMBOL Switches\\ADG1212 688 336 R270
SYMATTR InstName U4
SYMBOL Switches\\ADG1212 1152 320 R270
SYMATTR InstName U5
SYMBOL Switches\\ADG1212 1600 336 R270
SYMATTR InstName U6
SYMBOL voltage 448 768 R0
WINDOW 123 24 124 Left 2
WINDOW 39 0 0 Left 0
SYMATTR Value2 AC 1
SYMATTR InstName Vin1
SYMATTR Value SINE(0 6.29m 2k)
TEXT 320 -144 Left 2 !.op
TEXT 328 -104 Left 2 !.FOUR 2khz 15 V(vOUT)
TEXT 328 -48 Left 2 !;ac dec 100 1 10Meg
TEXT 336 0 Left 2 !.tran 5m
