Version 4
SHEET 1 928 680
WIRE -16 128 -80 128
WIRE 176 144 112 144
WIRE 400 144 320 144
WIRE 624 144 544 144
WIRE 816 144 768 144
WIRE -16 160 -80 160
FLAG -80 128 VA
IOPIN -80 128 In
FLAG -80 160 VB
IOPIN -80 160 In
FLAG 816 144 Vout
IOPIN 816 144 Out
SYMBOL Etaj1_Amp 48 144 R0
SYMATTR InstName Amplificator
SYMBOL Etaj2_Amp 240 144 R0
SYMATTR InstName Filtru
SYMBOL Etaj3_Amp 464 144 R0
SYMATTR InstName PGA
SYMBOL Etaj4_Amp 688 144 R0
SYMATTR InstName Redresor
TEXT 208 -72 Left 2 !;op
TEXT 208 -40 Left 2 !;ac dec 100 1 10Meg
TEXT 216 -8 Left 2 !.tran 5m
