Version 4
SHEET 1 2224 996
WIRE 1344 16 1344 -32
WIRE 1488 16 1488 -32
WIRE 1648 16 1648 -32
WIRE 1824 16 1824 -32
WIRE 2000 16 2000 -32
WIRE 1024 32 1024 0
WIRE 1152 32 1152 0
WIRE 1024 128 1024 112
WIRE 1152 128 1152 112
WIRE 1344 144 1344 96
WIRE 1488 144 1488 96
WIRE 1648 144 1648 96
WIRE 1824 144 1824 96
WIRE 2000 144 2000 96
WIRE -368 288 -432 288
WIRE -144 288 -288 288
WIRE 96 288 -144 288
WIRE 304 288 176 288
WIRE 512 288 304 288
WIRE 704 288 592 288
WIRE 944 288 704 288
WIRE 1168 288 1024 288
WIRE 1392 288 1168 288
WIRE 1616 288 1472 288
WIRE 1904 288 1616 288
WIRE 2064 288 1984 288
WIRE 1168 352 1168 288
WIRE -432 368 -432 288
WIRE -144 368 -144 288
WIRE 304 368 304 288
WIRE 704 368 704 288
WIRE 1616 368 1616 288
WIRE 1888 592 1888 576
WIRE 1920 608 1920 576
WIRE -144 640 -144 560
WIRE 304 640 304 560
WIRE 304 640 -144 640
WIRE 704 640 704 560
WIRE 704 640 304 640
WIRE 1168 640 1168 544
WIRE 1168 640 704 640
WIRE 1616 640 1616 560
WIRE 1616 640 1168 640
WIRE 1872 640 1616 640
WIRE 2064 656 2064 288
WIRE 2064 656 1984 656
WIRE 2112 656 2064 656
WIRE 1872 672 1776 672
WIRE 1888 736 1888 720
WIRE 1920 736 1920 704
WIRE 1776 752 1776 672
WIRE 1776 976 1776 832
FLAG 1024 128 0
FLAG 1152 128 0
FLAG 1024 0 VCC
FLAG 1152 0 -VCC
FLAG 1920 736 0
FLAG 1888 576 VCC
FLAG 1920 576 VCC
FLAG 1888 736 -VCC
FLAG -432 368 0
FLAG 1344 -32 S1
FLAG 1488 -32 S2
FLAG 1648 -32 S3
FLAG 1824 -32 S4
FLAG 2000 -32 S5
FLAG 1344 144 0
FLAG 1488 144 0
FLAG 1648 144 0
FLAG 1824 144 0
FLAG 2000 144 0
FLAG -224 464 VCC
FLAG 224 464 VCC
FLAG 624 464 VCC
FLAG 1088 448 VCC
FLAG 1536 464 VCC
FLAG 32 528 -VCC
FLAG 480 528 -VCC
FLAG 880 528 -VCC
FLAG 1344 512 -VCC
FLAG 1792 528 -VCC
FLAG 32 400 0
FLAG 480 400 0
FLAG 880 400 0
FLAG 1344 384 0
FLAG 1792 400 0
FLAG 1680 560 S1
FLAG 1232 544 S2
FLAG 768 560 S3
FLAG 368 560 S4
FLAG -80 560 S5
FLAG 1776 976 0
FLAG 2112 656 Vout
DATAFLAG 2064 656 ""
DATAFLAG 1616 288 ""
DATAFLAG 1168 288 ""
DATAFLAG 704 288 ""
DATAFLAG 304 288 ""
DATAFLAG -144 288 ""
SYMBOL OpAmps\\LT6018 1920 656 R0
SYMATTR InstName U1
SYMBOL voltage 1024 16 R0
SYMATTR InstName V1
SYMATTR Value 15
SYMBOL voltage 1152 16 R0
SYMATTR InstName V2
SYMATTR Value -15
SYMBOL res 1488 272 R90
WINDOW 0 0 56 VBottom 2
WINDOW 3 32 56 VTop 2
SYMATTR InstName R1
SYMATTR Value 11.93k
SYMBOL res 1040 272 R90
WINDOW 0 0 56 VBottom 2
WINDOW 3 32 56 VTop 2
SYMATTR InstName R2
SYMATTR Value 8.34k
SYMBOL res 608 272 R90
WINDOW 0 0 56 VBottom 2
WINDOW 3 32 56 VTop 2
SYMATTR InstName R3
SYMATTR Value 5.81k
SYMBOL res 192 272 R90
WINDOW 0 0 56 VBottom 2
WINDOW 3 32 56 VTop 2
SYMATTR InstName R4
SYMATTR Value 4.12k
SYMBOL res -272 272 R90
WINDOW 0 0 56 VBottom 2
WINDOW 3 32 56 VTop 2
SYMATTR InstName R5
SYMATTR Value 10k
SYMBOL res 2000 272 R90
WINDOW 0 0 56 VBottom 2
WINDOW 3 32 56 VTop 2
SYMATTR InstName R0
SYMATTR Value 39.75k
SYMBOL voltage 1344 0 R0
WINDOW 123 0 0 Left 0
WINDOW 39 0 0 Left 0
SYMATTR InstName V3
SYMATTR Value 0
SYMBOL voltage 1488 0 R0
WINDOW 123 0 0 Left 0
WINDOW 39 0 0 Left 0
SYMATTR InstName V4
SYMATTR Value 0
SYMBOL voltage 1648 0 R0
WINDOW 123 0 0 Left 0
WINDOW 39 0 0 Left 0
SYMATTR InstName V5
SYMATTR Value 0
SYMBOL voltage 1824 0 R0
WINDOW 123 0 0 Left 0
WINDOW 39 0 0 Left 0
SYMATTR InstName V6
SYMATTR Value 6
SYMBOL voltage 2000 0 R0
WINDOW 123 0 0 Left 0
WINDOW 39 0 0 Left 0
SYMATTR InstName V7
SYMATTR Value 0
SYMBOL Switches\\ADG1212 -96 464 R270
SYMATTR InstName U2
SYMBOL Switches\\ADG1212 352 464 R270
SYMATTR InstName U3
SYMBOL Switches\\ADG1212 752 464 R270
SYMATTR InstName U4
SYMBOL Switches\\ADG1212 1216 448 R270
SYMATTR InstName U5
SYMBOL Switches\\ADG1212 1664 464 R270
SYMATTR InstName U6
SYMBOL voltage 1776 736 R0
WINDOW 123 24 124 Left 2
WINDOW 39 0 0 Left 0
SYMATTR Value2 AC 1
SYMATTR InstName Vin
SYMATTR Value SINE(0 6.29m 2k)
TEXT 384 -16 Left 2 !.op
TEXT 392 24 Left 2 !.FOUR 2khz 15 V(vOUT)
TEXT 392 80 Left 2 !.ac dec 100 1 10Meg
TEXT 400 128 Left 2 !;tran 5m
